*Heading
** Job name: LaserCladding-Single Model name: Model-1
** Generated by: Abaqus/CAE 2025
*Preprint, echo=NO, model=NO, history=NO, contact=NO
**
** PARTS
**
*Part, name=Part-1
*End Part
**  
**
** ASSEMBLY
**
*Assembly, name=Assembly
**  
*Instance, name=Part-1-1, part=Part-1
*Node
      1, 0.00400000019, 0.00300000003,           0.
      2, 0.00200000009, 0.00300000003,           0.
      3, 0.00200000009, 0.00359999994,           0.
      4, 0.00400000019, 0.00359999994,           0.
      5, 0.00200000009, 0.00300000003, 0.0120000001
      6, 0.00400000019, 0.00300000003, 0.0120000001
      7, 0.00400000019, 0.00359999994, 0.0120000001
      8, 0.00200000009, 0.00359999994, 0.0120000001
      9,           0., 0.00300000003, 0.0120000001
     10,           0., 0.00300000003,           0.
     11, 0.00600000005, 0.00300000003, 0.0120000001
     12, 0.00600000005, 0.00300000003,           0.
     13, 0.00600000005, 2.60770329e-11, 0.0120000001
     14,           0., 2.60770329e-11, 0.0120000001
     15,           0., 2.60770329e-11,           0.
     16, 0.00600000005, 2.60770329e-11,           0.
     17, 0.00371428579, 0.00300000003,           0.
     18, 0.00342857139, 0.00300000003,           0.
     19, 0.00314285723, 0.00300000003,           0.
     20, 0.00285714283, 0.00300000003,           0.
** ... 10558 like lines cut
*Element, type=DC3D8
  1,   30,  457,   17,    1,  976, 3325,  747,  148
  2,  457,  458,   18,   17, 3325, 3326,  746,  747
  3,  458,  459,   19,   18, 3326, 3327,  745,  746
  4,  459,  460,   20,   19, 3327, 3328,  744,  745
  5,  460,  461,   21,   20, 3328, 3329,  743,  744
  6,  461,  462,   22,   21, 3329, 3330,  742,  743
  7,  462,   23,    2,   22, 3330,  703,  109,  742
  8,    4,   29,  457,   30,   69,  469, 3325,  976
  9,   29,   28,  458,  457,  469,  470, 3326, 3325
 10,   28,   27,  459,  458,  470,  471, 3327, 3326
 11,   27,   26,  460,  459,  471,  472, 3328, 3327
 12,   26,   25,  461,  460,  472,  473, 3329, 3328
 13,   25,   24,  462,  461,  473,  474, 3330, 3329
 14,   24,    3,   23,  462,  474,   70,  703, 3330
 15,  976, 3325,  747,  148,  977, 3331,  753,  149
 16, 3325, 3326,  746,  747, 3331, 3332,  752,  753
 17, 3326, 3327,  745,  746, 3332, 3333,  751,  752
 18, 3327, 3328,  744,  745, 3333, 3334,  750,  751
 19, 3328, 3329,  743,  744, 3334, 3335,  749,  750
 20, 3329, 3330,  742,  743, 3335, 3336,  748,  749
** ... 8940 like lines cut
*Nset, nset=All, generate
     1,  10578,      1
*Elset, elset=All, generate
    1,  8960,     1
** Section: SolidSection
*Solid Section, elset=All, material=Material-1
,
*End Instance
**  
*Nset, nset=All-Cells, instance=Part-1-1, generate
     1,  10578,      1
*Elset, elset=All-Cells, instance=Part-1-1, generate
    1,  8960,     1
*Elset, elset=All-Elements, instance=Part-1-1, generate
    1,  8960,     1
*Nset, nset=All-External-Faces, instance=Part-1-1, generate
    1,  3324,     1
*Elset, elset=All-External-Faces, instance=Part-1-1
    1,    2,    3,    4,    5,    6,    7,    8,    9,   10,   11,   12,   13,   14,   15,   16
   17,   18,   19,   20,   21,   22,   23,   24,   25,   26,   27,   28,   29,   30,   31,   32
   33,   34,   35,   36,   37,   38,   39,   40,   41,   42,   43,   44,   45,   46,   47,   48
   49,   50,   51,   52,   53,   54,   55,   56,   57,   58,   59,   60,   61,   62,   63,   64
   65,   66,   67,   68,   69,   70,   71,   72,   73,   74,   75,   76,   77,   78,   79,   80
   81,   82,   83,   84,   85,   86,   87,   88,   89,   90,   91,   92,   93,   94,   95,   96
   97,   98,   99,  100,  101,  102,  103,  104,  105,  106,  107,  108,  109,  110,  111,  112
  113,  114,  115,  116,  117,  118,  119,  120,  121,  122,  123,  124,  125,  126,  127,  128
  129,  130,  131,  132,  133,  134,  135,  136,  137,  138,  139,  140,  141,  142,  143,  144
  145,  146,  147,  148,  149,  150,  151,  152,  153,  154,  155,  156,  157,  158,  159,  160
  161,  162,  163,  164,  165,  166,  167,  168,  169,  170,  171,  172,  173,  174,  175,  176
  177,  178,  179,  180,  181,  182,  183,  184,  185,  186,  187,  188,  189,  190,  191,  192
  193,  194,  195,  196,  197,  198,  199,  200,  201,  202,  203,  204,  205,  206,  207,  208
  209,  210,  211,  212,  213,  214,  215,  216,  217,  218,  219,  220,  221,  222,  223,  224
  225,  226,  227,  228,  229,  230,  231,  232,  233,  234,  235,  236,  237,  238,  239,  240
  241,  242,  243,  244,  245,  246,  247,  248,  249,  250,  251,  252,  253,  254,  255,  256
  257,  258,  259,  260,  261,  262,  263,  264,  265,  266,  267,  268,  269,  270,  271,  272
  273,  274,  275,  276,  277,  278,  279,  280,  281,  282,  283,  284,  285,  286,  287,  288
  289,  290,  291,  292,  293,  294,  295,  296,  297,  298,  299,  300,  301,  302,  303,  304
  305,  306,  307,  308,  309,  310,  311,  312,  313,  314,  315,  316,  317,  318,  319,  320
** ... 179 like lines cut
*Elset, elset=Set-Kill, instance=Part-1-1, generate
   1,  560,    1
*Elset, elset=Set-Layer-001, instance=Part-1-1, generate
   1,  14,   1
*Elset, elset=Set-Layer-002, instance=Part-1-1, generate
  15,  28,   1
*Elset, elset=Set-Layer-003, instance=Part-1-1, generate
  29,  42,   1
*Elset, elset=Set-Layer-004, instance=Part-1-1, generate
  43,  56,   1
*Elset, elset=Set-Layer-005, instance=Part-1-1, generate
  57,  70,   1
*Elset, elset=Set-Layer-006, instance=Part-1-1, generate
  71,  84,   1
*Elset, elset=Set-Layer-007, instance=Part-1-1, generate
  85,  98,   1
*Elset, elset=Set-Layer-008, instance=Part-1-1, generate
  99, 112,   1
*Elset, elset=Set-Layer-009, instance=Part-1-1, generate
 113, 126,   1
*Elset, elset=Set-Layer-010, instance=Part-1-1, generate
 127, 140,   1
*Elset, elset=Set-Layer-011, instance=Part-1-1, generate
 141, 154,   1
*Elset, elset=Set-Layer-012, instance=Part-1-1, generate
 155, 168,   1
*Elset, elset=Set-Layer-013, instance=Part-1-1, generate
 169, 182,   1
*Elset, elset=Set-Layer-014, instance=Part-1-1, generate
 183, 196,   1
*Elset, elset=Set-Layer-015, instance=Part-1-1, generate
 197, 210,   1
*Elset, elset=Set-Layer-016, instance=Part-1-1, generate
 211, 224,   1
*Elset, elset=Set-Layer-017, instance=Part-1-1, generate
 225, 238,   1
*Elset, elset=Set-Layer-018, instance=Part-1-1, generate
 239, 252,   1
*Elset, elset=Set-Layer-019, instance=Part-1-1, generate
 253, 266,   1
*Elset, elset=Set-Layer-020, instance=Part-1-1, generate
** ... 41 like lines cut
*Elset, elset=_Surf-All-External_S5, internal, instance=Part-1-1
    1,    2,    3,    4,    5,    6,    7,   15,   16,   17,   18,   19,   20,   21,   29,   30
   31,   32,   33,   34,   35,   43,   44,   45,   46,   47,   48,   49,   57,   58,   59,   60
   61,   62,   63,   71,   72,   73,   74,   75,   76,   77,   85,   86,   87,   88,   89,   90
   91,   99,  100,  101,  102,  103,  104,  105,  113,  114,  115,  116,  117,  118,  119,  127
  128,  129,  130,  131,  132,  133,  141,  142,  143,  144,  145,  146,  147,  155,  156,  157
  158,  159,  160,  161,  169,  170,  171,  172,  173,  174,  175,  183,  184,  185,  186,  187
  188,  189,  197,  198,  199,  200,  201,  202,  203,  211,  212,  213,  214,  215,  216,  217
  225,  226,  227,  228,  229,  230,  231,  239,  240,  241,  242,  243,  244,  245,  253,  254
  255,  256,  257,  258,  259,  267,  268,  269,  270,  271,  272,  273,  281,  282,  283,  284
  285,  286,  287,  295,  296,  297,  298,  299,  300,  301,  309,  310,  311,  312,  313,  314
  315,  323,  324,  325,  326,  327,  328,  329,  337,  338,  339,  340,  341,  342,  343,  351
  352,  353,  354,  355,  356,  357,  365,  366,  367,  368,  369,  370,  371,  379,  380,  381
  382,  383,  384,  385,  393,  394,  395,  396,  397,  398,  399,  407,  408,  409,  410,  411
  412,  413,  421,  422,  423,  424,  425,  426,  427,  435,  436,  437,  438,  439,  440,  441
  449,  450,  451,  452,  453,  454,  455,  463,  464,  465,  466,  467,  468,  469,  477,  478
  479,  480,  481,  482,  483,  491,  492,  493,  494,  495,  496,  497,  505,  506,  507,  508
  509,  510,  511,  519,  520,  521,  522,  523,  524,  525,  533,  534,  535,  536,  537,  538
  539,  547,  548,  549,  550,  551,  552,  553,  561,  562,  563,  564,  565,  566,  567, 1121
 1122, 1123, 1124, 1125, 1126, 1127, 1401, 1402, 1403, 1404, 1405, 1406, 1407, 1961, 1962, 1963
 1964, 1965, 1966, 1967, 2241, 2242, 2243, 2244, 2245, 2246, 2247, 2801, 2802, 2803, 2804, 2805
** ... 7 like lines cut
*Elset, elset=_Surf-All-External_S1, internal, instance=Part-1-1
    1,    2,    3,    4,    5,    6,    7,    8,    9,   10,   11,   12,   13,   14,  561,  562
  563,  564,  565,  566,  567,  568,  569,  570,  571,  572,  573,  574,  575,  576,  577,  578
  579,  580,  581,  582,  583,  584,  585,  586,  587,  588,  589,  590,  591,  592,  593,  594
  595,  596,  597,  598,  599,  600,  601,  602,  603,  604,  605,  606,  607,  608,  609,  610
  611,  612,  613,  614,  615,  616,  617,  618,  619,  620,  621,  622,  623,  624,  625,  626
  627,  628,  629,  630,  631,  632,  633,  634,  635,  636,  637,  638,  639,  640,  641,  642
  643,  644,  645,  646,  647,  648,  649,  650,  651,  652,  653,  654,  655,  656,  657,  658
  659,  660,  661,  662,  663,  664,  665,  666,  667,  668,  669,  670,  671,  672,  673,  674
  675,  676,  677,  678,  679,  680,  681,  682,  683,  684,  685,  686,  687,  688,  689,  690
  691,  692,  693,  694,  695,  696,  697,  698,  699,  700,  701,  702,  703,  704,  705,  706
  707,  708,  709,  710,  711,  712,  713,  714,  715,  716,  717,  718,  719,  720,  721,  722
  723,  724,  725,  726,  727,  728,  729,  730,  731,  732,  733,  734,  735,  736,  737,  738
  739,  740,  741,  742,  743,  744,  745,  746,  747,  748,  749,  750,  751,  752,  753,  754
  755,  756,  757,  758,  759,  760,  761,  762,  763,  764,  765,  766,  767,  768,  769,  770
  771,  772,  773,  774,  775,  776,  777,  778,  779,  780,  781,  782,  783,  784,  785,  786
  787,  788,  789,  790,  791,  792,  793,  794,  795,  796,  797,  798,  799,  800,  801,  802
  803,  804,  805,  806,  807,  808,  809,  810,  811,  812,  813,  814,  815,  816,  817,  818
  819,  820,  821,  822,  823,  824,  825,  826,  827,  828,  829,  830,  831,  832,  833,  834
  835,  836,  837,  838,  839,  840, 1121, 1122, 1123, 1124, 1125, 1126, 1127, 1128, 1129, 1130
 1131, 1132, 1133, 1134, 1135, 1136, 1137, 1138, 1139, 1140, 1141, 1142, 1143, 1144, 1145, 1146
** ... 16 like lines cut
*Elset, elset=_Surf-All-External_S4, internal, instance=Part-1-1
    7,   14,   21,   28,   35,   42,   49,   56,   63,   70,   77,   84,   91,   98,  105,  112
  119,  126,  133,  140,  147,  154,  161,  168,  175,  182,  189,  196,  203,  210,  217,  224
  231,  238,  245,  252,  259,  266,  273,  280,  287,  294,  301,  308,  315,  322,  329,  336
  343,  350,  357,  364,  371,  378,  385,  392,  399,  406,  413,  420,  427,  434,  441,  448
  455,  462,  469,  476,  483,  490,  497,  504,  511,  518,  525,  532,  539,  546,  553,  560
 1114, 1115, 1116, 1117, 1118, 1119, 1120, 1127, 1134, 1141, 1148, 1155, 1162, 1169, 1176, 1183
 1190, 1197, 1204, 1211, 1218, 1225, 1232, 1239, 1246, 1253, 1260, 1267, 1274, 1281, 1288, 1295
 1302, 1309, 1316, 1323, 1330, 1337, 1344, 1351, 1358, 1365, 1372, 1379, 1386, 1393, 1400, 1954
 1955, 1956, 1957, 1958, 1959, 1960, 1967, 1974, 1981, 1988, 1995, 2002, 2009, 2016, 2023, 2030
 2037, 2044, 2051, 2058, 2065, 2072, 2079, 2086, 2093, 2100, 2107, 2114, 2121, 2128, 2135, 2142
 2149, 2156, 2163, 2170, 2177, 2184, 2191, 2198, 2205, 2212, 2219, 2226, 2233, 2240, 2794, 2795
 2796, 2797, 2798, 2799, 2800, 2807, 2814, 2821, 2828, 2835, 2842, 2849, 2856, 2863, 2870, 2877
 2884, 2891, 2898, 2905, 2912, 2919, 2926, 2933, 2940, 2947, 2954, 2961, 2968, 2975, 2982, 2989
 2996, 3003, 3010, 3017, 3024, 3031, 3038, 3045, 3052, 3059, 3066, 3073, 3080, 3634, 3635, 3636
 3637, 3638, 3639, 3640, 3647, 3654, 3661, 3668, 3675, 3682, 3689, 3696, 3703, 3710, 3717, 3724
 3731, 3738, 3745, 3752, 3759, 3766, 3773, 3780, 3787, 3794, 3801, 3808, 3815, 3822, 3829, 3836
 3843, 3850, 3857, 3864, 3871, 3878, 3885, 3892, 3899, 3906, 3913, 3920, 4474, 4475, 4476, 4477
 4478, 4479, 4480, 4487, 4494, 4501, 4508, 4515, 4522, 4529, 4536, 4543, 4550, 4557, 4564, 4571
 4578, 4585, 4592, 4599, 4606, 4613, 4620, 4627, 4634, 4641, 4648, 4655, 4662, 4669, 4676, 4683
 4690, 4697, 4704, 4711, 4718, 4725, 4732, 4739, 4746, 4753, 4760, 5314, 5315, 5316, 5317, 5318
** ... 15 like lines cut
*Elset, elset=_Surf-All-External_S3, internal, instance=Part-1-1
    8,    9,   10,   11,   12,   13,   14,   22,   23,   24,   25,   26,   27,   28,   36,   37
   38,   39,   40,   41,   42,   50,   51,   52,   53,   54,   55,   56,   64,   65,   66,   67
   68,   69,   70,   78,   79,   80,   81,   82,   83,   84,   92,   93,   94,   95,   96,   97
   98,  106,  107,  108,  109,  110,  111,  112,  120,  121,  122,  123,  124,  125,  126,  134
  135,  136,  137,  138,  139,  140,  148,  149,  150,  151,  152,  153,  154,  162,  163,  164
  165,  166,  167,  168,  176,  177,  178,  179,  180,  181,  182,  190,  191,  192,  193,  194
  195,  196,  204,  205,  206,  207,  208,  209,  210,  218,  219,  220,  221,  222,  223,  224
  232,  233,  234,  235,  236,  237,  238,  246,  247,  248,  249,  250,  251,  252,  260,  261
  262,  263,  264,  265,  266,  274,  275,  276,  277,  278,  279,  280,  288,  289,  290,  291
  292,  293,  294,  302,  303,  304,  305,  306,  307,  308,  316,  317,  318,  319,  320,  321
  322,  330,  331,  332,  333,  334,  335,  336,  344,  345,  346,  347,  348,  349,  350,  358
  359,  360,  361,  362,  363,  364,  372,  373,  374,  375,  376,  377,  378,  386,  387,  388
  389,  390,  391,  392,  400,  401,  402,  403,  404,  405,  406,  414,  415,  416,  417,  418
  419,  420,  428,  429,  430,  431,  432,  433,  434,  442,  443,  444,  445,  446,  447,  448
  456,  457,  458,  459,  460,  461,  462,  470,  471,  472,  473,  474,  475,  476,  484,  485
  486,  487,  488,  489,  490,  498,  499,  500,  501,  502,  503,  504,  512,  513,  514,  515
  516,  517,  518,  526,  527,  528,  529,  530,  531,  532,  540,  541,  542,  543,  544,  545
  546,  554,  555,  556,  557,  558,  559,  560,  834,  835,  836,  837,  838,  839,  840, 1394
 1395, 1396, 1397, 1398, 1399, 1400, 1674, 1675, 1676, 1677, 1678, 1679, 1680, 2234, 2235, 2236
 2237, 2238, 2239, 2240, 2514, 2515, 2516, 2517, 2518, 2519, 2520, 3074, 3075, 3076, 3077, 3078
** ... 7 like lines cut
*Elset, elset=_Surf-All-External_S6, internal, instance=Part-1-1
    1,    8,   15,   22,   29,   36,   43,   50,   57,   64,   71,   78,   85,   92,   99,  106
  113,  120,  127,  134,  141,  148,  155,  162,  169,  176,  183,  190,  197,  204,  211,  218
  225,  232,  239,  246,  253,  260,  267,  274,  281,  288,  295,  302,  309,  316,  323,  330
  337,  344,  351,  358,  365,  372,  379,  386,  393,  400,  407,  414,  421,  428,  435,  442
  449,  456,  463,  470,  477,  484,  491,  498,  505,  512,  519,  526,  533,  540,  547,  554
  561,  568,  575,  582,  589,  596,  603,  610,  617,  624,  631,  638,  645,  652,  659,  666
  673,  680,  687,  694,  701,  708,  715,  722,  729,  736,  743,  750,  757,  764,  771,  778
  785,  792,  799,  806,  813,  820,  827,  834,  841,  842,  843,  844,  845,  846,  847, 1401
 1408, 1415, 1422, 1429, 1436, 1443, 1450, 1457, 1464, 1471, 1478, 1485, 1492, 1499, 1506, 1513
 1520, 1527, 1534, 1541, 1548, 1555, 1562, 1569, 1576, 1583, 1590, 1597, 1604, 1611, 1618, 1625
 1632, 1639, 1646, 1653, 1660, 1667, 1674, 1681, 1682, 1683, 1684, 1685, 1686, 1687, 2241, 2248
 2255, 2262, 2269, 2276, 2283, 2290, 2297, 2304, 2311, 2318, 2325, 2332, 2339, 2346, 2353, 2360
 2367, 2374, 2381, 2388, 2395, 2402, 2409, 2416, 2423, 2430, 2437, 2444, 2451, 2458, 2465, 2472
 2479, 2486, 2493, 2500, 2507, 2514, 2521, 2522, 2523, 2524, 2525, 2526, 2527, 3081, 3088, 3095
 3102, 3109, 3116, 3123, 3130, 3137, 3144, 3151, 3158, 3165, 3172, 3179, 3186, 3193, 3200, 3207
 3214, 3221, 3228, 3235, 3242, 3249, 3256, 3263, 3270, 3277, 3284, 3291, 3298, 3305, 3312, 3319
 3326, 3333, 3340, 3347, 3354, 3361, 3362, 3363, 3364, 3365, 3366, 3367, 3921, 3928, 3935, 3942
 3949, 3956, 3963, 3970, 3977, 3984, 3991, 3998, 4005, 4012, 4019, 4026, 4033, 4040, 4047, 4054
 4061, 4068, 4075, 4082, 4089, 4096, 4103, 4110, 4117, 4124, 4131, 4138, 4145, 4152, 4159, 4166
 4173, 4180, 4187, 4194, 4201, 4202, 4203, 4204, 4205, 4206, 4207, 4761, 4768, 4775, 4782, 4789
** ... 15 like lines cut
*Elset, elset=_Surf-All-External_S2, internal, instance=Part-1-1
  547,  548,  549,  550,  551,  552,  553,  554,  555,  556,  557,  558,  559,  560, 8121, 8122
 8123, 8124, 8125, 8126, 8127, 8128, 8129, 8130, 8131, 8132, 8133, 8134, 8135, 8136, 8137, 8138
 8139, 8140, 8141, 8142, 8143, 8144, 8145, 8146, 8147, 8148, 8149, 8150, 8151, 8152, 8153, 8154
 8155, 8156, 8157, 8158, 8159, 8160, 8161, 8162, 8163, 8164, 8165, 8166, 8167, 8168, 8169, 8170
 8171, 8172, 8173, 8174, 8175, 8176, 8177, 8178, 8179, 8180, 8181, 8182, 8183, 8184, 8185, 8186
 8187, 8188, 8189, 8190, 8191, 8192, 8193, 8194, 8195, 8196, 8197, 8198, 8199, 8200, 8201, 8202
 8203, 8204, 8205, 8206, 8207, 8208, 8209, 8210, 8211, 8212, 8213, 8214, 8215, 8216, 8217, 8218
 8219, 8220, 8221, 8222, 8223, 8224, 8225, 8226, 8227, 8228, 8229, 8230, 8231, 8232, 8233, 8234
 8235, 8236, 8237, 8238, 8239, 8240, 8241, 8242, 8243, 8244, 8245, 8246, 8247, 8248, 8249, 8250
 8251, 8252, 8253, 8254, 8255, 8256, 8257, 8258, 8259, 8260, 8261, 8262, 8263, 8264, 8265, 8266
 8267, 8268, 8269, 8270, 8271, 8272, 8273, 8274, 8275, 8276, 8277, 8278, 8279, 8280, 8281, 8282
 8283, 8284, 8285, 8286, 8287, 8288, 8289, 8290, 8291, 8292, 8293, 8294, 8295, 8296, 8297, 8298
 8299, 8300, 8301, 8302, 8303, 8304, 8305, 8306, 8307, 8308, 8309, 8310, 8311, 8312, 8313, 8314
 8315, 8316, 8317, 8318, 8319, 8320, 8321, 8322, 8323, 8324, 8325, 8326, 8327, 8328, 8329, 8330
 8331, 8332, 8333, 8334, 8335, 8336, 8337, 8338, 8339, 8340, 8341, 8342, 8343, 8344, 8345, 8346
 8347, 8348, 8349, 8350, 8351, 8352, 8353, 8354, 8355, 8356, 8357, 8358, 8359, 8360, 8361, 8362
 8363, 8364, 8365, 8366, 8367, 8368, 8369, 8370, 8371, 8372, 8373, 8374, 8375, 8376, 8377, 8378
 8379, 8380, 8381, 8382, 8383, 8384, 8385, 8386, 8387, 8388, 8389, 8390, 8391, 8392, 8393, 8394
 8395, 8396, 8397, 8398, 8399, 8400, 8401, 8402, 8403, 8404, 8405, 8406, 8407, 8408, 8409, 8410
 8411, 8412, 8413, 8414, 8415, 8416, 8417, 8418, 8419, 8420, 8421, 8422, 8423, 8424, 8425, 8426
** ... 34 like lines cut
*Surface, type=ELEMENT, name=Surf-All-External
_Surf-All-External_S5, S5
_Surf-All-External_S1, S1
_Surf-All-External_S4, S4
_Surf-All-External_S6, S6
_Surf-All-External_S2, S2
_Surf-All-External_S3, S3
*End Assembly
** 
** MATERIALS
** 
*Material, name=Material-1
*Conductivity
 13.1,  10.
  14., 100.
  23., 300.
  36., 500.
  38., 800.
  35.,1200.
  70.,1350.
 100.,1450.
 130.,1800.
 170.,3000.
*Density
7740.,  10.
7710., 100.
7680., 300.
7580., 500.
7470., 800.
7350.,1200.
7000.,1500.
*Latent Heat
270000., 1384.85, 1446.85
*Specific Heat
450.,  10.
500., 100.
650., 300.
750., 500.
850., 800.
780.,1200.
920.,1500.
** 
** PHYSICAL CONSTANTS
** 
*Physical Constants, absolute zero=-273.15, stefan boltzmann=5.67037e-08
** 
** PREDEFINED FIELDS
** 
** Name: Initial-Temp   Type: Temperature
*Initial Conditions, type=TEMPERATURE
All-Cells, 20.
** ----------------------------------------------------------------
** 
** STEP: Step-1
** 
*Step, name=Step-1, nlgeom=NO, inc=1000000
*Heat Transfer, end=PERIOD, deltmx=200.
1e-08, 1e-08, 1e-11, 1e-08, 
*Model Change, remove
Set-Kill
** 
** OUTPUT REQUESTS
** 
*Restart, write, frequency=0
** 
** FIELD OUTPUT: F-Output-1
** 
*Output, field, variable=PRESELECT
*Output, history, frequency=0
*End Step
**
** STEP: Step-2
**
*Step, name=Step-2, nlgeom=NO, inc=1000000
*Heat Transfer, end=PERIOD, deltmx=50.
0.012, 0.06, 2e-06, 0.03, 
*Model Change, add
Set-Layer-001
** 
** LOADS
** 
*Dflux
All-Elements, BFNU, 1.
** 
** INTERACTIONS
** 
*Sfilm
Surf-All-External, F, 20., 20.
*Sradiate
Surf-All-External, R, 20., 0.85
*End Step
**
** STEP: Step-3
**
*Step, name=Step-3, nlgeom=NO, inc=1000000
*Heat Transfer, end=PERIOD, deltmx=50.
0.012, 0.06, 2e-06, 0.03, 
*Model Change, add
Set-Layer-002
** 
** LOADS
** 
*Dflux
All-Elements, BFNU, 1.
** 
** INTERACTIONS
** 
*Sfilm
Surf-All-External, F, 20., 20.
*Sradiate
Surf-All-External, R, 20., 0.85
*End Step
**
** STEP: Step-4
**
*Step, name=Step-4, nlgeom=NO, inc=1000000
*Heat Transfer, end=PERIOD, deltmx=50.
0.012, 0.06, 2e-06, 0.03, 
*Model Change, add
Set-Layer-003
** 
** LOADS
** 
*Dflux
All-Elements, BFNU, 1.
** 
** INTERACTIONS
** 
*Sfilm
Surf-All-External, F, 20., 20.
*Sradiate
Surf-All-External, R, 20., 0.85
*End Step
**
** STEP: Step-5
**
*Step, name=Step-5, nlgeom=NO, inc=1000000
*Heat Transfer, end=PERIOD, deltmx=50.
0.012, 0.06, 2e-06, 0.03, 
*Model Change, add
Set-Layer-004
** 
** LOADS
** 
*Dflux
All-Elements, BFNU, 1.
** 
** INTERACTIONS
** 
*Sfilm
Surf-All-External, F, 20., 20.
*Sradiate
Surf-All-External, R, 20., 0.85
*End Step
**
** STEP: Step-6
**
*Step, name=Step-6, nlgeom=NO, inc=1000000
*Heat Transfer, end=PERIOD, deltmx=50.
0.012, 0.06, 2e-06, 0.03, 
*Model Change, add
Set-Layer-005
** 
** LOADS
** 
*Dflux
All-Elements, BFNU, 1.
** 
** INTERACTIONS
** 
*Sfilm
Surf-All-External, F, 20., 20.
*Sradiate
Surf-All-External, R, 20., 0.85
*End Step
**
** STEP: Step-7
**
*Step, name=Step-7, nlgeom=NO, inc=1000000
*Heat Transfer, end=PERIOD, deltmx=50.
0.012, 0.06, 2e-06, 0.03, 
*Model Change, add
Set-Layer-006
** 
** LOADS
** 
*Dflux
All-Elements, BFNU, 1.
** 
** INTERACTIONS
** 
*Sfilm
Surf-All-External, F, 20., 20.
*Sradiate
Surf-All-External, R, 20., 0.85
*End Step
**
** STEP: Step-8
**
*Step, name=Step-8, nlgeom=NO, inc=1000000
*Heat Transfer, end=PERIOD, deltmx=50.
0.012, 0.06, 2e-06, 0.03, 
*Model Change, add
Set-Layer-007
** 
** LOADS
** 
*Dflux
All-Elements, BFNU, 1.
** 
** INTERACTIONS
** 
*Sfilm
Surf-All-External, F, 20., 20.
*Sradiate
Surf-All-External, R, 20., 0.85
*End Step
**
** STEP: Step-9
**
*Step, name=Step-9, nlgeom=NO, inc=1000000
*Heat Transfer, end=PERIOD, deltmx=50.
0.012, 0.06, 2e-06, 0.03, 
*Model Change, add
Set-Layer-008
** 
** LOADS
** 
*Dflux
All-Elements, BFNU, 1.
** 
** INTERACTIONS
** 
*Sfilm
Surf-All-External, F, 20., 20.
*Sradiate
Surf-All-External, R, 20., 0.85
*End Step
**
** STEP: Step-10
**
*Step, name=Step-10, nlgeom=NO, inc=1000000
*Heat Transfer, end=PERIOD, deltmx=50.
0.012, 0.06, 2e-06, 0.03, 
*Model Change, add
Set-Layer-009
** 
** LOADS
** 
*Dflux
All-Elements, BFNU, 1.
** 
** INTERACTIONS
** 
*Sfilm
Surf-All-External, F, 20., 20.
*Sradiate
Surf-All-External, R, 20., 0.85
*End Step
**
** STEP: Step-11
**
*Step, name=Step-11, nlgeom=NO, inc=1000000
*Heat Transfer, end=PERIOD, deltmx=50.
0.012, 0.06, 2e-06, 0.03, 
*Model Change, add
Set-Layer-010
** 
** LOADS
** 
*Dflux
All-Elements, BFNU, 1.
** 
** INTERACTIONS
** 
*Sfilm
Surf-All-External, F, 20., 20.
*Sradiate
Surf-All-External, R, 20., 0.85
*End Step
**
** STEP: Step-12
**
*Step, name=Step-12, nlgeom=NO, inc=1000000
*Heat Transfer, end=PERIOD, deltmx=50.
0.012, 0.06, 2e-06, 0.03, 
*Model Change, add
Set-Layer-011
** 
** LOADS
** 
*Dflux
All-Elements, BFNU, 1.
** 
** INTERACTIONS
** 
*Sfilm
Surf-All-External, F, 20., 20.
*Sradiate
Surf-All-External, R, 20., 0.85
*End Step
**
** STEP: Step-13
**
*Step, name=Step-13, nlgeom=NO, inc=1000000
*Heat Transfer, end=PERIOD, deltmx=50.
0.012, 0.06, 2e-06, 0.03, 
*Model Change, add
Set-Layer-012
** 
** LOADS
** 
*Dflux
All-Elements, BFNU, 1.
** 
** INTERACTIONS
** 
*Sfilm
Surf-All-External, F, 20., 20.
*Sradiate
Surf-All-External, R, 20., 0.85
*End Step
**
** STEP: Step-14
**
*Step, name=Step-14, nlgeom=NO, inc=1000000
*Heat Transfer, end=PERIOD, deltmx=50.
0.012, 0.06, 2e-06, 0.03, 
*Model Change, add
Set-Layer-013
** 
** LOADS
** 
*Dflux
All-Elements, BFNU, 1.
** 
** INTERACTIONS
** 
*Sfilm
Surf-All-External, F, 20., 20.
*Sradiate
Surf-All-External, R, 20., 0.85
*End Step
**
** STEP: Step-15
**
*Step, name=Step-15, nlgeom=NO, inc=1000000
*Heat Transfer, end=PERIOD, deltmx=50.
0.012, 0.06, 2e-06, 0.03, 
*Model Change, add
Set-Layer-014
** 
** LOADS
** 
*Dflux
All-Elements, BFNU, 1.
** 
** INTERACTIONS
** 
*Sfilm
Surf-All-External, F, 20., 20.
*Sradiate
Surf-All-External, R, 20., 0.85
*End Step
**
** STEP: Step-16
**
*Step, name=Step-16, nlgeom=NO, inc=1000000
*Heat Transfer, end=PERIOD, deltmx=50.
0.012, 0.06, 2e-06, 0.03, 
*Model Change, add
Set-Layer-015
** 
** LOADS
** 
*Dflux
All-Elements, BFNU, 1.
** 
** INTERACTIONS
** 
*Sfilm
Surf-All-External, F, 20., 20.
*Sradiate
Surf-All-External, R, 20., 0.85
*End Step
**
** STEP: Step-17
**
*Step, name=Step-17, nlgeom=NO, inc=1000000
*Heat Transfer, end=PERIOD, deltmx=50.
0.012, 0.06, 2e-06, 0.03, 
*Model Change, add
Set-Layer-016
** 
** LOADS
** 
*Dflux
All-Elements, BFNU, 1.
** 
** INTERACTIONS
** 
*Sfilm
Surf-All-External, F, 20., 20.
*Sradiate
Surf-All-External, R, 20., 0.85
*End Step
**
** STEP: Step-18
**
*Step, name=Step-18, nlgeom=NO, inc=1000000
*Heat Transfer, end=PERIOD, deltmx=50.
0.012, 0.06, 2e-06, 0.03, 
*Model Change, add
Set-Layer-017
** 
** LOADS
** 
*Dflux
All-Elements, BFNU, 1.
** 
** INTERACTIONS
** 
*Sfilm
Surf-All-External, F, 20., 20.
*Sradiate
Surf-All-External, R, 20., 0.85
*End Step
**
** STEP: Step-19
**
*Step, name=Step-19, nlgeom=NO, inc=1000000
*Heat Transfer, end=PERIOD, deltmx=50.
0.012, 0.06, 2e-06, 0.03, 
*Model Change, add
Set-Layer-018
** 
** LOADS
** 
*Dflux
All-Elements, BFNU, 1.
** 
** INTERACTIONS
** 
*Sfilm
Surf-All-External, F, 20., 20.
*Sradiate
Surf-All-External, R, 20., 0.85
*End Step
**
** STEP: Step-20
**
*Step, name=Step-20, nlgeom=NO, inc=1000000
*Heat Transfer, end=PERIOD, deltmx=50.
0.012, 0.06, 2e-06, 0.03, 
*Model Change, add
Set-Layer-019
** 
** LOADS
** 
*Dflux
All-Elements, BFNU, 1.
** 
** INTERACTIONS
** 
*Sfilm
Surf-All-External, F, 20., 20.
*Sradiate
Surf-All-External, R, 20., 0.85
*End Step
**
** STEP: Step-21
**
*Step, name=Step-21, nlgeom=NO, inc=1000000
*Heat Transfer, end=PERIOD, deltmx=50.
0.012, 0.06, 2e-06, 0.03, 
*Model Change, add
Set-Layer-020
** 
** LOADS
** 
*Dflux
All-Elements, BFNU, 1.
** 
** INTERACTIONS
** 
*Sfilm
Surf-All-External, F, 20., 20.
*Sradiate
Surf-All-External, R, 20., 0.85
*End Step
**
** STEP: Step-22
**
*Step, name=Step-22, nlgeom=NO, inc=1000000
*Heat Transfer, end=PERIOD, deltmx=50.
0.012, 0.06, 2e-06, 0.03, 
*Model Change, add
Set-Layer-021
** 
** LOADS
** 
*Dflux
All-Elements, BFNU, 1.
** 
** INTERACTIONS
** 
*Sfilm
Surf-All-External, F, 20., 20.
*Sradiate
Surf-All-External, R, 20., 0.85
*End Step
**
** STEP: Step-23
**
*Step, name=Step-23, nlgeom=NO, inc=1000000
*Heat Transfer, end=PERIOD, deltmx=50.
0.012, 0.06, 2e-06, 0.03, 
*Model Change, add
Set-Layer-022
** 
** LOADS
** 
*Dflux
All-Elements, BFNU, 1.
** 
** INTERACTIONS
** 
*Sfilm
Surf-All-External, F, 20., 20.
*Sradiate
Surf-All-External, R, 20., 0.85
*End Step
**
** STEP: Step-24
**
*Step, name=Step-24, nlgeom=NO, inc=1000000
*Heat Transfer, end=PERIOD, deltmx=50.
0.012, 0.06, 2e-06, 0.03, 
*Model Change, add
Set-Layer-023
** 
** LOADS
** 
*Dflux
All-Elements, BFNU, 1.
** 
** INTERACTIONS
** 
*Sfilm
Surf-All-External, F, 20., 20.
*Sradiate
Surf-All-External, R, 20., 0.85
*End Step
**
** STEP: Step-25
**
*Step, name=Step-25, nlgeom=NO, inc=1000000
*Heat Transfer, end=PERIOD, deltmx=50.
0.012, 0.06, 2e-06, 0.03, 
*Model Change, add
Set-Layer-024
** 
** LOADS
** 
*Dflux
All-Elements, BFNU, 1.
** 
** INTERACTIONS
** 
*Sfilm
Surf-All-External, F, 20., 20.
*Sradiate
Surf-All-External, R, 20., 0.85
*End Step
**
** STEP: Step-26
**
*Step, name=Step-26, nlgeom=NO, inc=1000000
*Heat Transfer, end=PERIOD, deltmx=50.
0.012, 0.06, 2e-06, 0.03, 
*Model Change, add
Set-Layer-025
** 
** LOADS
** 
*Dflux
All-Elements, BFNU, 1.
** 
** INTERACTIONS
** 
*Sfilm
Surf-All-External, F, 20., 20.
*Sradiate
Surf-All-External, R, 20., 0.85
*End Step
**
** STEP: Step-27
**
*Step, name=Step-27, nlgeom=NO, inc=1000000
*Heat Transfer, end=PERIOD, deltmx=50.
0.012, 0.06, 2e-06, 0.03, 
*Model Change, add
Set-Layer-026
** 
** LOADS
** 
*Dflux
All-Elements, BFNU, 1.
** 
** INTERACTIONS
** 
*Sfilm
Surf-All-External, F, 20., 20.
*Sradiate
Surf-All-External, R, 20., 0.85
*End Step
**
** STEP: Step-28
**
*Step, name=Step-28, nlgeom=NO, inc=1000000
*Heat Transfer, end=PERIOD, deltmx=50.
0.012, 0.06, 2e-06, 0.03, 
*Model Change, add
Set-Layer-027
** 
** LOADS
** 
*Dflux
All-Elements, BFNU, 1.
** 
** INTERACTIONS
** 
*Sfilm
Surf-All-External, F, 20., 20.
*Sradiate
Surf-All-External, R, 20., 0.85
*End Step
**
** STEP: Step-29
**
*Step, name=Step-29, nlgeom=NO, inc=1000000
*Heat Transfer, end=PERIOD, deltmx=50.
0.012, 0.06, 2e-06, 0.03, 
*Model Change, add
Set-Layer-028
** 
** LOADS
** 
*Dflux
All-Elements, BFNU, 1.
** 
** INTERACTIONS
** 
*Sfilm
Surf-All-External, F, 20., 20.
*Sradiate
Surf-All-External, R, 20., 0.85
*End Step
**
** STEP: Step-30
**
*Step, name=Step-30, nlgeom=NO, inc=1000000
*Heat Transfer, end=PERIOD, deltmx=50.
0.012, 0.06, 2e-06, 0.03, 
*Model Change, add
Set-Layer-029
** 
** LOADS
** 
*Dflux
All-Elements, BFNU, 1.
** 
** INTERACTIONS
** 
*Sfilm
Surf-All-External, F, 20., 20.
*Sradiate
Surf-All-External, R, 20., 0.85
*End Step
**
** STEP: Step-31
**
*Step, name=Step-31, nlgeom=NO, inc=1000000
*Heat Transfer, end=PERIOD, deltmx=50.
0.012, 0.06, 2e-06, 0.03, 
*Model Change, add
Set-Layer-030
** 
** LOADS
** 
*Dflux
All-Elements, BFNU, 1.
** 
** INTERACTIONS
** 
*Sfilm
Surf-All-External, F, 20., 20.
*Sradiate
Surf-All-External, R, 20., 0.85
*End Step
**
** STEP: Step-32
**
*Step, name=Step-32, nlgeom=NO, inc=1000000
*Heat Transfer, end=PERIOD, deltmx=50.
0.012, 0.06, 2e-06, 0.03, 
*Model Change, add
Set-Layer-031
** 
** LOADS
** 
*Dflux
All-Elements, BFNU, 1.
** 
** INTERACTIONS
** 
*Sfilm
Surf-All-External, F, 20., 20.
*Sradiate
Surf-All-External, R, 20., 0.85
*End Step
**
** STEP: Step-33
**
*Step, name=Step-33, nlgeom=NO, inc=1000000
*Heat Transfer, end=PERIOD, deltmx=50.
0.012, 0.06, 2e-06, 0.03, 
*Model Change, add
Set-Layer-032
** 
** LOADS
** 
*Dflux
All-Elements, BFNU, 1.
** 
** INTERACTIONS
** 
*Sfilm
Surf-All-External, F, 20., 20.
*Sradiate
Surf-All-External, R, 20., 0.85
*End Step
**
** STEP: Step-34
**
*Step, name=Step-34, nlgeom=NO, inc=1000000
*Heat Transfer, end=PERIOD, deltmx=50.
0.012, 0.06, 2e-06, 0.03, 
*Model Change, add
Set-Layer-033
** 
** LOADS
** 
*Dflux
All-Elements, BFNU, 1.
** 
** INTERACTIONS
** 
*Sfilm
Surf-All-External, F, 20., 20.
*Sradiate
Surf-All-External, R, 20., 0.85
*End Step
**
** STEP: Step-35
**
*Step, name=Step-35, nlgeom=NO, inc=1000000
*Heat Transfer, end=PERIOD, deltmx=50.
0.012, 0.06, 2e-06, 0.03, 
*Model Change, add
Set-Layer-034
** 
** LOADS
** 
*Dflux
All-Elements, BFNU, 1.
** 
** INTERACTIONS
** 
*Sfilm
Surf-All-External, F, 20., 20.
*Sradiate
Surf-All-External, R, 20., 0.85
*End Step
**
** STEP: Step-36
**
*Step, name=Step-36, nlgeom=NO, inc=1000000
*Heat Transfer, end=PERIOD, deltmx=50.
0.012, 0.06, 2e-06, 0.03, 
*Model Change, add
Set-Layer-035
** 
** LOADS
** 
*Dflux
All-Elements, BFNU, 1.
** 
** INTERACTIONS
** 
*Sfilm
Surf-All-External, F, 20., 20.
*Sradiate
Surf-All-External, R, 20., 0.85
*End Step
**
** STEP: Step-37
**
*Step, name=Step-37, nlgeom=NO, inc=1000000
*Heat Transfer, end=PERIOD, deltmx=50.
0.012, 0.06, 2e-06, 0.03, 
*Model Change, add
Set-Layer-036
** 
** LOADS
** 
*Dflux
All-Elements, BFNU, 1.
** 
** INTERACTIONS
** 
*Sfilm
Surf-All-External, F, 20., 20.
*Sradiate
Surf-All-External, R, 20., 0.85
*End Step
**
** STEP: Step-38
**
*Step, name=Step-38, nlgeom=NO, inc=1000000
*Heat Transfer, end=PERIOD, deltmx=50.
0.012, 0.06, 2e-06, 0.03, 
*Model Change, add
Set-Layer-037
** 
** LOADS
** 
*Dflux
All-Elements, BFNU, 1.
** 
** INTERACTIONS
** 
*Sfilm
Surf-All-External, F, 20., 20.
*Sradiate
Surf-All-External, R, 20., 0.85
*End Step
**
** STEP: Step-39
**
*Step, name=Step-39, nlgeom=NO, inc=1000000
*Heat Transfer, end=PERIOD, deltmx=50.
0.012, 0.06, 2e-06, 0.03, 
*Model Change, add
Set-Layer-038
** 
** LOADS
** 
*Dflux
All-Elements, BFNU, 1.
** 
** INTERACTIONS
** 
*Sfilm
Surf-All-External, F, 20., 20.
*Sradiate
Surf-All-External, R, 20., 0.85
*End Step
**
** STEP: Step-40
**
*Step, name=Step-40, nlgeom=NO, inc=1000000
*Heat Transfer, end=PERIOD, deltmx=50.
0.012, 0.06, 2e-06, 0.03, 
*Model Change, add
Set-Layer-039
** 
** LOADS
** 
*Dflux
All-Elements, BFNU, 1.
** 
** INTERACTIONS
** 
*Sfilm
Surf-All-External, F, 20., 20.
*Sradiate
Surf-All-External, R, 20., 0.85
*End Step
**
** STEP: Step-41
**
*Step, name=Step-41, nlgeom=NO, inc=1000000
*Heat Transfer, end=PERIOD, deltmx=50.
0.012, 0.06, 2e-06, 0.03, 
*Model Change, add
Set-Layer-040
** 
** LOADS
** 
*Dflux
All-Elements, BFNU, 1.
** 
** INTERACTIONS
** 
*Sfilm
Surf-All-External, F, 20., 20.
*Sradiate
Surf-All-External, R, 20., 0.85
*End Step
